                   SWAT+               
             Revision 60.5.4          
      Soil & Water Assessment Tool    
               PC Version             
    Program reading . . . executing

